@<TRIPOS>MOLECULE
SAM
   50    52     1     0     0
SMALL
resp


@<TRIPOS>ATOM
      1 N1           5.8110    -1.2750    -2.4340 n4         1 SAM      -0.583805
      2 C1           5.5140    -0.1450    -1.4860 c3         1 SAM       0.235459
      3 C2           6.2320    -0.5360    -0.1540 c          1 SAM       0.733861
      4 O1           6.4050    -1.7510    -0.0520 o          1 SAM      -0.698094
      5 C3           4.0010    -0.0680    -1.2350 c3         1 SAM      -0.239426
      6 C4           3.6490     1.0340    -0.2140 c3         1 SAM      -0.098886
      7 S1           2.9550     0.5440     1.4040 s4         1 SAM       0.251471
      8 C5           4.0850    -0.6210     2.2090 c3         1 SAM      -0.272449
      9 C6           1.5230    -0.5260     1.0630 c3         1 SAM      -0.288978
     10 C7           0.4620     0.1380     0.1920 c3         1 SAM       0.113402
     11 O2          -0.6540    -0.7080     0.2020 os         1 SAM      -0.463738
     12 C8          -0.0620     1.5040     0.6570 c3         1 SAM       0.381712
     13 O3           0.6620     2.5250     0.0520 oh         1 SAM      -0.800404
     14 C9          -1.5570     1.4520     0.2580 c3         1 SAM       0.172801
     15 O4          -1.8200     2.4580    -0.6560 oh         1 SAM      -0.743801
     16 C10         -1.7110     0.0380    -0.3370 c3         1 SAM       0.343143
     17 O5           6.4040     0.3930     0.6140 o          1 SAM      -0.698094
     18 N2          -6.8540     0.4540    -0.4390 nb         1 SAM      -0.587531
     19 C11         -5.9150     1.3840    -0.6470 ca         1 SAM       0.270574
     20 N3          -4.4650     1.1740    -0.5410 nb         1 SAM      -0.578036
     21 C12         -4.1820    -0.0290    -0.2070 ca         1 SAM       0.485865
     22 C13         -5.1010    -1.1010     0.0290 ca         1 SAM       0.331252
     23 C14         -6.5450    -0.7630    -0.1150 ca         1 SAM       0.499939
     24 N4          -7.4620    -1.7580     0.0020 nh         1 SAM      -0.858027
     25 N5          -4.4680    -2.2260     0.3250 nc         1 SAM      -0.635378
     26 C15         -3.1780    -1.9380     0.2880 cd         1 SAM       0.394436
     27 N6          -2.9490    -0.6010     0.0030 na         1 SAM      -0.483882
     28 H1           6.6590    -1.1080    -2.9540 hn         1 SAM       0.361053
     29 H2           5.0800    -1.4990    -3.0920 hn         1 SAM       0.361053
     30 H3           6.0010    -2.0570    -1.7880 hn         1 SAM       0.361053
     31 H4           5.8960     0.7720    -1.9070 hx         1 SAM       0.054753
     32 H5           3.6620    -1.0450    -0.9060 hc         1 SAM       0.092346
     33 H6           3.4770     0.1510    -2.1600 hc         1 SAM       0.092346
     34 H7           2.8950     1.7110    -0.5910 h1         1 SAM       0.162706
     35 H8           4.5200     1.6090     0.0630 h1         1 SAM       0.162706
     36 H9           5.0130    -0.1040     2.3930 h1         1 SAM       0.173364
     37 H10          4.2710    -1.4850     1.5890 h1         1 SAM       0.173364
     38 H11          3.6030    -0.9030     3.1350 h1         1 SAM       0.173364
     39 H12          1.1080    -0.7470     2.0380 h1         1 SAM       0.184245
     40 H13          1.8650    -1.4520     0.6200 h1         1 SAM       0.184245
     41 H14          0.8280     0.2510    -0.8250 h1         1 SAM       0.105467
     42 H15          0.0220     1.5920     1.7350 h1         1 SAM       0.020192
     43 H16          0.0560     3.1140    -0.3900 ho         1 SAM       0.539291
     44 H17         -2.1810     1.5450     1.1370 h1         1 SAM       0.054216
     45 H18         -2.7640     2.4750    -0.8120 ho         1 SAM       0.470081
     46 H19         -1.6030     0.0990    -1.4170 h2         1 SAM       0.084835
     47 H20         -6.2120     2.3830    -0.8830 h5         1 SAM       0.097944
     48 H21         -8.4170    -1.4760     0.0470 hn         1 SAM       0.395752
     49 H22         -7.2180    -2.5550     0.5470 hn         1 SAM       0.395752
     50 H23         -2.3850    -2.6240     0.4840 h5         1 SAM       0.116484
@<TRIPOS>BOND
     1     1     2 1   
     2     1    28 1   
     3     1    29 1   
     4     1    30 1   
     5     2     3 1   
     6     2     5 1   
     7     2    31 1   
     8     3     4 1   
     9     3    17 1   
    10     5     6 1   
    11     5    32 1   
    12     5    33 1   
    13     6     7 1   
    14     6    34 1   
    15     6    35 1   
    16     7     8 1   
    17     7     9 1   
    18     8    36 1   
    19     8    37 1   
    20     8    38 1   
    21     9    10 1   
    22     9    39 1   
    23     9    40 1   
    24    10    11 1   
    25    10    12 1   
    26    10    41 1   
    27    11    16 1   
    28    12    13 1   
    29    12    14 1   
    30    12    42 1   
    31    13    43 1   
    32    14    15 1   
    33    14    16 1   
    34    14    44 1   
    35    15    45 1   
    36    16    27 1   
    37    16    46 1   
    38    18    19 ar  
    39    18    23 ar  
    40    19    20 ar  
    41    19    47 1   
    42    20    21 ar  
    43    21    22 ar  
    44    21    27 1   
    45    22    23 ar  
    46    22    25 1   
    47    23    24 1   
    48    24    48 1   
    49    24    49 1   
    50    25    26 2   
    51    26    27 1   
    52    26    50 1   
@<TRIPOS>SUBSTRUCTURE
     1 SAM         1 TEMP              0 ****  ****    0 ROOT
